Circuit: * C:\Users\rb\Documents\HSRW\Teaching\EE_EEng\REPO\EE_1.08_2_EEng_LAB_WS2022\ex3\LTspice\PVmodule_40_PVcell_Ext_Mini_V003.asc

.step e0=200
.step e0=1000

Date: Mon Dec 05 08:55:41 2022
Total elapsed time: 0.584 seconds.

tnom = 27
temp = 27
method = trap
totiter = 4404
traniter = 0
tranpoints = 0
accept = 0
rejected = 0
matrix size = 81
fillins = 72
solver = Normal
Thread vector: 25.1/17.4[7] 0.0/0.0[0] 6.4/4.1[7] 0.3/2.0[1]  2592/500
Matrix Compiler1: 6.84 KB object code size  2.3/1.8/[0.9]
Matrix Compiler2: 7.03 KB object code size  1.2/1.8/[0.7]

