Circuit: * C:\Users\rb\Documents\HSRW\Teaching\EE_EEng\REPO\EE_1.08_2_EEng_WS2022\eeng0700_Photovoltaics\LTspice_PV-Modeling_INCLASS\PVmodule_40_PVcell_Ext_Mini_V002.asc

.step e0=200
.step e0=1000

Date: Sun Dec 04 22:22:59 2022
Total elapsed time: 0.597 seconds.

tnom = 27
temp = 27
method = trap
totiter = 4404
traniter = 0
tranpoints = 0
accept = 0
rejected = 0
matrix size = 81
fillins = 72
solver = Normal
Thread vector: 26.2/17.4[7] 0.0/0.0[0] 6.6/4.1[7] 0.3/1.0[1]  2592/500
Matrix Compiler1: 6.84 KB object code size  2.6/1.9/[1.0]
Matrix Compiler2: 7.03 KB object code size  1.2/1.8/[0.7]

